"OPT_Shakti_5_178_AeroDyn15_Polar_AF01.dat"
"OPT_Shakti_5_178_AeroDyn15_Polar_AF02.dat"
"OPT_Shakti_5_178_AeroDyn15_Polar_AF03.dat"
"OPT_Shakti_5_178_AeroDyn15_Polar_AF04.dat"
"OPT_Shakti_5_178_AeroDyn15_Polar_AF05.dat"
"OPT_Shakti_5_178_AeroDyn15_Polar_AF06.dat"
"OPT_Shakti_5_178_AeroDyn15_Polar_AF07.dat"
"OPT_Shakti_5_178_AeroDyn15_Polar_AF08.dat"
"OPT_Shakti_5_178_AeroDyn15_Polar_AF09.dat"
"OPT_Shakti_5_178_AeroDyn15_Polar_AF10.dat"
"OPT_Shakti_5_178_AeroDyn15_Polar_AF11.dat"
"OPT_Shakti_5_178_AeroDyn15_Polar_AF12.dat"
"OPT_Shakti_5_178_AeroDyn15_Polar_AF13.dat"
"OPT_Shakti_5_178_AeroDyn15_Polar_AF14.dat"
"OPT_Shakti_5_178_AeroDyn15_Polar_AF15.dat"
"OPT_Shakti_5_178_AeroDyn15_Polar_AF16.dat"
"OPT_Shakti_5_178_AeroDyn15_Polar_AF17.dat"
"OPT_Shakti_5_178_AeroDyn15_Polar_AF18.dat"
"OPT_Shakti_5_178_AeroDyn15_Polar_AF19.dat"
"OPT_Shakti_5_178_AeroDyn15_Polar_AF20.dat"
"OPT_Shakti_5_178_AeroDyn15_Polar_AF21.dat"
