AeroDyn airfoil file Created with QBlade CE v2.0.7.7_beta windows on 09.12.2024 at 17:46:46 Compatible with AeroDyn v13.0.
Polar "NACA_0060_Re6.000_M0.00_N9.0 360 M" on Foil "NACA 0060" :: generated by QBlade
1              Number of airfoil tables in this file
0              Table ID parameter
0.00           Stall angle (deg)
0              No longer used, enter zero
0              No longer used, enter zero
0              No longer used, enter zero
0.00           Angle of attack for zero Cn for linear Cn curve (deg)
0.00000        Cn slope for zero lift for linear Cn curve (1/rad)
0.0000         Cn at stall value for positive angle of attack for linear Cn curve
0.0000         Cn at stall value for negative angle of attack for linear Cn curve
0.00           Angle of attack for minimum CD (deg)
0.0000         Minimum CD value
  -180.000 -0.000058  0.006022 -0.000015
  -179.000  0.012562  0.006438  0.003347
  -178.000  0.025636  0.007682  0.006841
  -177.000  0.039593  0.009754  0.010587
  -176.000  0.054966  0.012651  0.014736
  -175.000  0.072295  0.016370  0.019434
  -174.000  0.091973  0.020905  0.024794
  -173.000  0.114126  0.026252  0.030849
  -172.000  0.138556  0.032404  0.037553
  -171.000  0.164801  0.039353  0.044785
  -170.000  0.192256  0.047092  0.052388
  -169.000  0.220307  0.055610  0.060203
  -168.000  0.248423  0.064897  0.068095
  -167.000  0.276194  0.074941  0.075959
  -166.000  0.303339  0.085732  0.083727
  -165.000  0.329677  0.097255  0.091356
  -164.000  0.355103  0.109496  0.098824
  -163.000  0.379564  0.122441  0.106123
  -162.000  0.403041  0.136073  0.113251
  -161.000  0.425529  0.150376  0.120215
  -160.000  0.447035  0.165333  0.127019
  -159.000  0.467569  0.180926  0.133673
  -158.000  0.487141  0.197135  0.140182
  -157.000  0.505761  0.213940  0.146555
  -156.000  0.523435  0.231322  0.152797
  -155.000  0.540169  0.249258  0.158915
  -154.000  0.555965  0.267728  0.164913
  -153.000  0.570824  0.286708  0.170795
  -152.000  0.584747  0.306176  0.176566
  -151.000  0.597730  0.326107  0.182228
  -150.000  0.609773  0.346478  0.187784
  -149.000  0.620872  0.367263  0.193238
  -148.000  0.631023  0.388438  0.198591
  -147.000  0.640224  0.409976  0.203845
  -146.000  0.648471  0.431851  0.209003
  -145.000  0.655763  0.454036  0.214066
  -144.000  0.662096  0.476505  0.219036
  -143.000  0.667469  0.499229  0.223915
  -142.000  0.671882  0.522183  0.228705
  -141.000  0.675334  0.545336  0.233407
  -140.000  0.677827  0.568661  0.238022
  -139.000  0.679363  0.592130  0.242553
  -138.000  0.679945  0.615714  0.247001
  -137.000  0.679576  0.639384  0.251367
  -136.000  0.678262  0.663111  0.255654
  -135.000  0.676009  0.686866  0.259862
  -134.000  0.672825  0.710621  0.263993
  -133.000  0.668718  0.734346  0.268049
  -132.000  0.663697  0.758012  0.272031
  -131.000  0.657774  0.781591  0.275940
  -130.000  0.650960  0.805054  0.279778
  -129.000  0.643268  0.828371  0.283545
  -128.000  0.634712  0.851515  0.287244
  -127.000  0.625307  0.874457  0.290875
  -126.000  0.615069  0.897169  0.294439
  -125.000  0.604016  0.919623  0.297938
  -124.000  0.592165  0.941793  0.301371
  -123.000  0.579536  0.963650  0.304740
  -122.000  0.566148  0.985168  0.308045
  -121.000  0.552023  1.006320  0.311286
  -120.000  0.537182  1.027082  0.314464
  -119.000  0.521648  1.047426  0.317580
  -118.000  0.505445  1.067329  0.320632
  -117.000  0.488595  1.086765  0.323621
  -116.000  0.471125  1.105712  0.326546
  -115.000  0.453060  1.124144  0.329408
  -114.000  0.434426  1.142041  0.332205
  -113.000  0.413284  1.159380  0.334727
  -112.000  0.393523  1.176138  0.337394
  -111.000  0.373275  1.192297  0.339993
  -110.000  0.352565  1.207835  0.342525
  -109.000  0.331424  1.222733  0.344987
  -108.000  0.309879  1.236972  0.347377
  -107.000  0.287959  1.250536  0.349695
  -106.000  0.265695  1.263406  0.351937
  -105.000  0.243115  1.275566  0.354103
  -104.000  0.220249  1.287002  0.356189
  -103.000  0.197127  1.297697  0.358194
  -102.000  0.173779  1.307640  0.360115
  -101.000  0.150236  1.316816  0.361950
  -100.000  0.126526  1.325213  0.363696
   -99.000  0.102681  1.332820  0.365350
   -98.000  0.078729  1.339627  0.366910
   -97.000  0.054702  1.345625  0.368372
   -96.000  0.030628  1.350803  0.369734
   -95.000  0.006536  1.355155  0.370993
   -94.000 -0.017544  1.358673  0.372144
   -93.000 -0.041583  1.361350  0.373186
   -92.000 -0.065554  1.363182  0.374116
   -91.000 -0.089427  1.364164  0.374929
   -90.000 -0.113177  1.364290  0.375622
   -89.000 -0.136774  1.363559  0.376193
   -88.000 -0.160194  1.361966  0.376638
   -87.000 -0.183410  1.359509  0.376953
   -86.000 -0.206398  1.356187  0.377135
   -85.000 -0.229131  1.351998  0.377181
   -84.000 -0.251588  1.346940  0.377087
   -83.000 -0.273745  1.341012  0.376850
   -82.000 -0.295579  1.334212  0.376466
   -81.000 -0.317071  1.326539  0.375931
   -80.000 -0.338199  1.317990  0.375241
   -79.000 -0.358946  1.308561  0.374393
   -78.000 -0.379293  1.298249  0.373381
   -77.000 -0.399224  1.287045  0.372201
   -76.000 -0.418725  1.274943  0.370848
   -75.000 -0.437783  1.261928  0.369316
   -74.000 -0.456386  1.247986  0.367599
   -73.000 -0.474525  1.233095  0.365689
   -72.000 -0.492193  1.217226  0.363577
   -71.000 -0.509386  1.200344  0.361254
   -70.000 -0.526102  1.182401  0.358708
   -69.000 -0.542343  1.163337  0.355923
   -68.000 -0.558113  1.143074  0.352882
   -67.000 -0.573422  1.121512  0.349564
   -66.000 -0.588284  1.098525  0.345942
   -65.000 -0.602716  1.073951  0.341982
   -64.000 -0.616742  1.047587  0.337646
   -63.000 -0.630390  1.019174  0.332880
   -62.000 -0.643690  0.988393  0.327624
   -61.000 -0.656677  0.954843  0.321801
   -60.000 -0.669379  0.918040  0.315317
   -59.000 -0.681817  0.877411  0.308063
   -58.000 -0.693985  0.832305  0.299917
   -57.000 -0.705835  0.782041  0.290748
   -56.000 -0.717242  0.726008  0.280440
   -55.000 -0.727969  0.663845  0.268921
   -54.000 -0.737623  0.595730  0.256220
   -53.000 -0.745633  0.522749  0.242532
   -52.000 -0.751281  0.447229  0.228282
   -51.000 -0.753809  0.372809  0.214137
   -50.000 -0.752627  0.303971  0.200921
   -49.000 -0.747532  0.244979  0.189421
   -48.000 -0.738819  0.198622  0.180150
   -47.000 -0.727209  0.165441  0.173206
   -46.000 -0.713606  0.143861  0.168298
   -45.000 -0.698845  0.131050  0.164896
   -44.000 -0.683537  0.123922  0.162427
   -43.000 -0.668039  0.119864  0.160402
   -42.000 -0.652504  0.117064  0.158481
   -41.000 -0.636971  0.114551  0.156481
   -40.000 -0.621437  0.112049  0.154353
   -39.000 -0.605904  0.109548  0.152096
   -38.000 -0.590370  0.107047  0.149713
   -37.000 -0.574837  0.104546  0.147208
   -36.000 -0.559304  0.102044  0.144583
   -35.000 -0.543770  0.099543  0.141842
   -34.000 -0.528237  0.097042  0.138988
   -33.000 -0.512703  0.094541  0.136023
   -32.000 -0.497170  0.092039  0.132952
   -31.000 -0.481636  0.089538  0.129776
   -30.000 -0.466103  0.087037  0.126501
   -29.000 -0.450569  0.084536  0.111968
   -28.000 -0.435036  0.082035  0.097434
   -27.000 -0.419503  0.079533  0.082901
   -26.000 -0.403969  0.077032  0.068367
   -25.000 -0.388436  0.074531  0.053834
   -24.000 -0.372902  0.072030  0.039301
   -23.000 -0.357369  0.069528  0.024767
   -22.000 -0.341835  0.067027  0.010234
   -21.000 -0.326302  0.064526 -0.004300
   -20.000 -0.310769  0.062025 -0.018833
   -19.000 -0.295235  0.059523 -0.033366
   -18.000 -0.279702  0.057022 -0.047900
   -17.000 -0.264168  0.054521 -0.062433
   -16.000 -0.248635  0.052020 -0.076967
   -15.000 -0.111900  0.071530 -0.091500
   -14.500 -0.093100  0.068540 -0.093100
   -14.000 -0.065400  0.066160 -0.095400
   -13.500 -0.055300  0.062820 -0.096100
   -13.000 -0.032700  0.060190 -0.097700
   -12.500 -0.010400  0.057680 -0.099200
   -12.000  0.003400  0.054760 -0.099900
   -11.500  0.040900  0.053140 -0.102500
   -11.000  0.049100  0.050060 -0.102400
   -10.500  0.077700  0.048130 -0.104100
   -10.000  0.102800  0.046010 -0.105300
    -9.500  0.114100  0.043410 -0.105000
    -9.000  0.146200  0.041860 -0.106500
    -8.500  0.166500  0.039810 -0.106800
    -8.000  0.190700  0.038210 -0.107200
    -7.500  0.211600  0.036350 -0.107200
    -7.000  0.243700  0.035240 -0.108000
    -6.500  0.252200  0.033370 -0.105900
    -6.000  0.280200  0.032340 -0.105900
    -5.500  0.289800  0.030950 -0.103100
    -5.000  0.259500  0.030120 -0.092500
    -4.500  0.206500  0.029390 -0.078100
    -3.500  0.159800  0.027980 -0.060000
    -3.000  0.126600  0.027290 -0.049700
    -2.500  0.101100  0.026670 -0.040700
    -2.000  0.098600  0.026270 -0.035100
    -1.500  0.061500  0.025840 -0.024500
    -1.000  0.030400  0.025610 -0.014700
    -0.500  0.035800  0.025520 -0.010400
     0.000 -0.000100  0.025390  0.000000
     0.500 -0.036000  0.025520  0.010400
     1.000 -0.030500  0.025610  0.014700
     1.500 -0.061800  0.025820  0.024500
     2.000 -0.098900  0.026260  0.035200
     2.500 -0.101200  0.026650  0.040800
     3.000 -0.126800  0.027270  0.049800
     3.500 -0.160900  0.027930  0.060300
     4.000 -0.177100  0.028600  0.068100
     4.500 -0.206700  0.029360  0.078100
     5.000 -0.279900  0.029990  0.096400
     5.500 -0.287100  0.030850  0.102800
     6.000 -0.278800  0.032300  0.105700
     6.500 -0.251000  0.033350  0.105800
     7.000 -0.243300  0.035260  0.107900
     7.500 -0.209800  0.036330  0.106900
     8.000 -0.189400  0.038220  0.106900
     8.500 -0.164300  0.039790  0.106500
     9.000 -0.143300  0.041820  0.106100
     9.500 -0.110300  0.043340  0.104500
    10.000 -0.098900  0.045960  0.104700
    10.500 -0.072400  0.048010  0.103400
    11.000 -0.045100  0.050020  0.101900
    11.500 -0.036800  0.053110  0.101900
    12.000  0.001100  0.054730  0.099200
    12.500  0.015600  0.057630  0.098500
    13.000  0.038200  0.060140  0.096900
    13.500  0.060500  0.062800  0.095300
    14.500  0.098600  0.068550  0.092200
    15.000  0.118100  0.071510  0.090600
    15.500  0.139500  0.074320  0.088700
    16.000  0.156200  0.077530  0.087000
    16.500  0.183800  0.080010  0.084500
    17.000  0.190300  0.083950  0.083400
    17.500  0.212700  0.086850  0.081100
    18.000  0.237400  0.089600  0.078500
    18.500  0.249200  0.093260  0.076800
    19.000  0.281600  0.095470  0.073700
    19.500  0.286700  0.099600  0.072200
    20.000  0.310800  0.102410  0.069500
    21.000  0.326102  0.064526  0.055338
    22.000  0.341635  0.067027  0.041177
    23.000  0.357169  0.069528  0.027015
    24.000  0.372702  0.072030  0.012854
    25.000  0.388236  0.074531 -0.001308
    26.000  0.403769  0.077032 -0.015469
    27.000  0.419303  0.079533 -0.029631
    28.000  0.434836  0.082035 -0.043792
    29.000  0.450369  0.084536 -0.057954
    30.000  0.465903  0.087037 -0.072116
    31.000  0.481436  0.089538 -0.086277
    32.000  0.496970  0.092039 -0.100439
    33.000  0.512503  0.094541 -0.114600
    34.000  0.528037  0.097042 -0.128762
    35.000  0.543570  0.099543 -0.142923
    36.000  0.559103  0.102044 -0.145674
    37.000  0.574637  0.104546 -0.148308
    38.000  0.590170  0.107047 -0.150820
    39.000  0.605704  0.109548 -0.153208
    40.000  0.621237  0.112049 -0.155470
    41.000  0.636771  0.114551 -0.157602
    42.000  0.652304  0.117052 -0.159601
    43.000  0.667838  0.119553 -0.161465
    44.000  0.683371  0.122054 -0.163191
    45.000  0.698904  0.124555 -0.164777
    46.000  0.714438  0.127057 -0.166220
    47.000  0.729971  0.129558 -0.167518
    48.000  0.745505  0.132059 -0.168667
    49.000  0.761038  0.134560 -0.169667
    50.000  0.776572  0.137062 -0.170515
    51.000  0.792105  0.139563 -0.171209
    52.000  0.807638  0.142064 -0.171746
    53.000  0.823172  0.144565 -0.172125
    54.000  0.838705  0.147067 -0.172344
    55.000  0.854239  0.149568 -0.172401
    56.000  0.869772  0.152069 -0.172294
    57.000  0.885306  0.154570 -0.172023
    58.000  0.900839  0.157072 -0.171585
    59.000  0.916372  0.159573 -0.170979
    60.000  0.931906  0.162074 -0.170203
    61.000  0.947439  0.164575 -0.169257
    62.000  0.962973  0.167076 -0.168140
    63.000  0.978506  0.169578 -0.166849
    64.000  0.994040  0.172079 -0.165385
    65.000  1.009573  0.174580 -0.163746
    66.000  1.025106  0.177081 -0.161932
    67.000  1.040640  0.179583 -0.159942
    68.000  1.056173  0.182084 -0.157775
    69.000  1.071707  0.184585 -0.155431
    70.000  1.087240  0.187086 -0.152910
    71.000  1.102774  0.189588 -0.150211
    72.000  1.118307  0.192089 -0.147334
    73.000  1.133840  0.194590 -0.144279
    74.000  1.149374  0.197091 -0.141046
    75.000  1.164907  0.199592 -0.137635
    76.000  1.180441  0.202094 -0.134046
    77.000  1.195974  0.204595 -0.130280
    78.000  1.211508  0.207096 -0.126336
    79.000  1.227041  0.209597 -0.122217
    80.000  1.242574  0.212099 -0.117921
    81.000  1.258108  0.214600 -0.113450
    82.000  1.273641  0.217101 -0.108804
    83.000  1.289175  0.219602 -0.103985
    84.000  1.304708  0.222104 -0.098993
    85.000  1.320242  0.224605 -0.093830
    86.000  1.335775  0.227106 -0.088496
    87.000  1.351308  0.229607 -0.082994
    88.000  1.366842  0.232109 -0.077323
    89.000  1.382375  0.234610 -0.071486
    90.000  1.397909  0.237111 -0.065485
    91.000  1.413442  0.239612 -0.059320
    92.000  1.428976  0.242113 -0.052994
    93.000  1.444509  0.244615 -0.046509
    94.000  1.460042  0.247116 -0.039866
    95.000  1.475576  0.249617 -0.033068
    96.000  1.491109  0.252118 -0.026116
    97.000  1.506643  0.254620 -0.019013
    98.000  1.522176  0.257121 -0.011761
    99.000  1.537710  0.259622 -0.004363
   100.000  1.553243  0.262123  0.003180
   101.000  1.568776  0.264625  0.010864
   102.000  1.584310  0.267126  0.018686
   103.000  1.599843  0.269627  0.026645
   104.000  1.615377  0.272128  0.034737
   105.000  1.630910  0.274629  0.042959
   106.000  1.646444  0.277131  0.051309
   107.000  1.661977  0.279632  0.059783
   108.000  1.677510  0.282133  0.068378
   109.000  1.693044  0.284634  0.077091
   110.000  1.708577  0.287136  0.085919
   111.000  1.724111  0.289637  0.094858
   112.000  1.739644  0.292138  0.103905
   113.000  1.755178  0.294639  0.113056
   114.000 -0.433380  0.297141 -0.122025
   115.000 -0.452033  0.299642 -0.126011
   116.000 -0.470121  0.302143 -0.130037
   117.000 -0.487618  0.304644 -0.134090
   118.000 -0.504500  0.307146 -0.138157
   119.000 -0.520741  0.309647 -0.142222
   120.000 -0.536318  0.312148 -0.146273
   121.000 -0.551209  0.314649 -0.150295
   122.000 -0.565391  0.317150 -0.154273
   123.000 -0.578843  0.319652 -0.158192
   124.000 -0.591544  0.322153 -0.162040
   125.000 -0.603476  0.324654 -0.165801
   126.000 -0.614621  0.327155 -0.169460
   127.000 -0.624961  0.329657 -0.173003
   128.000 -0.634479  0.332158 -0.176417
   129.000 -0.643162  0.334659 -0.179688
   130.000 -0.650995  0.337160 -0.182801
   131.000 -0.657966  0.339662 -0.185744
   132.000 -0.664064  0.342163 -0.188503
   133.000 -0.669278  0.344664 -0.191065
   134.000 -0.673600  0.347165 -0.193420
   135.000 -0.677022  0.349666 -0.195554
   136.000 -0.679540  0.352168 -0.197457
   137.000 -0.681147  0.354669 -0.199119
   138.000 -0.681842  0.357170 -0.200528
   139.000 -0.681623  0.359671 -0.201676
   140.000 -0.680490  0.362173 -0.202555
   141.000 -0.678445  0.364674 -0.203155
   142.000 -0.675493  0.367175 -0.203471
   143.000 -0.671638  0.369676 -0.203495
   144.000 -0.666888  0.372178 -0.203223
   145.000 -0.661252  0.374679 -0.202650
   146.000 -0.654743  0.377180 -0.201773
   147.000 -0.647374  0.379681 -0.200588
   148.000 -0.639162  0.382183 -0.199096
   149.000 -0.630126  0.384684 -0.197295
   150.000 -0.620289  0.387185 -0.195188
   151.000 -0.609677  0.389686 -0.192776
   152.000 -0.598320  0.392187 -0.190065
   153.000 -0.586254  0.394689 -0.187060
   154.000 -0.573520  0.397190 -0.183770
   155.000 -0.560167  0.399691 -0.180205
   156.000 -0.546253  0.402192 -0.176380
   157.000 -0.531850  0.404694 -0.172311
   158.000 -0.517045  0.407195 -0.168022
   159.000 -0.501949  0.409696 -0.163541
   160.000 -0.486708  0.412197 -0.158907
   161.000 -0.471517  0.414699 -0.154173
   162.000 -0.456650  0.417200 -0.149411
   163.000 -0.442510  0.419701 -0.144729
   164.000 -0.429729  0.422202 -0.140294
   165.000 -0.419365  0.424703 -0.136384
   166.000 -0.413388  0.427205 -0.133517
   167.000 -0.415964  0.429706 -0.132781
   168.000 -0.437881  0.432207 -0.136990
   169.000 -0.518868  0.434708 -0.156493
   170.000 -1.028182  0.437210 -0.287434
   171.000  0.511783  0.439711  0.115252
   172.000  0.052745  0.442212 -0.002456
   173.000 -0.024591  0.444713 -0.020721
   174.000 -0.046009  0.447215 -0.024371
   175.000 -0.049019  0.449716 -0.023179
   176.000 -0.044028  0.452217 -0.019860
   177.000 -0.035115  0.454718 -0.015482
   178.000 -0.024213  0.457219 -0.010555
   179.000 -0.012343  0.459721 -0.005350
   180.000 -0.000058  0.462222 -0.000015
   180.000 -0.000058  0.006022 -0.000015
